CSEE-RAS/TAS.DAT
(POWERFLOW,CASEID=LF1,PROJECT=PSD)
/PF_MAP,FILE = LF1.MAP\         
/NEW_BASE,FILE = LF1.BSE\       
/MVA_BASE = 100\                  
/P_OUTPUT_LIST,FULL\             
/RPT_SORT=ZONE\                  
/P_ANALYSIS,LEVEL=4\             
/NETWORK_DATA\                   
.............................. GROUP  [直流 ] ............................ 
B     B07     525.ZL              1320                
B     B08     525.ZL              1800

BD    DP01    210.      2 350.   5. 120.     5000.B07     525. 500.
BD    DP02    199.      2 350.7.    120.     5000.B08     525. 500.
LD    DP01    210.1DP02    199.  50005.    800.        R1500.500. 15. 17.
T     B07     525. DP01    210.  3000       .006              525. 210.4         T2-01
R     B07     525.1DP01    210.  DP01    210.7021948819 0
T     B08     525. DP02    199.  3000       .006              525. 199.4         T2-02
R     B08     525.1DP02    199.  DP02    199.688.5484.5 0

BD    DN01    210.      2 290.   5. 120.     5000.B07     525.
BD    DN02    199.      2 290.7.    120.     5000.B08     525.
LD    DN01    210.1DN02    199.  50005.    785.37      R1500.500. 15. 17.
T     B07     525. DN01    210.  3000       .006              525. 210.4         T2-03
R     B07     525.1DN01    210.  DN01    210.7021948819 0
T     B08     525. DN02    199.  3000       .006              525. 199.4         T2-04
R     B08     525.1DN02    199.  DN02    199.688.5484.5 0

.............................. GROUP  [调相机 ] ............................ 
BQ    SC08-1   20.ZL                            300.-150.1.03                                                                            
BQ    SC08-2   20.ZL                            300.-150.1.03                                                                                           
BQ    SC08-3   20.ZL                            300.-150.1.03                                                                                           
T     B08     525. SC08-1   20.1 360. .00031  .023             525.  20.                        530kV±2*2.5%      T2-74                            
T     B08     525. SC08-2   20.2 360. .00031  .023             525.  20.                        530kV±2*2.5%      T2-75                      
T     B08     525. SC08-3   20.3 360. .00031  .023             525.  20.                        530kV±2*2.5%      T2-76                                      
                                                                                                         
.............................. GROUP  [B01] ............................ 
B     B01     525.
B     B12     230.FH450  50           
B     B37      37.                125 

B     T3-01     1.                                                      
T     B01     525. T3-01     1.1 1000 .00008.02143             525.  1.
T     B12     230. T3-01     1.1 1000 .00005-.0021             230.  1.
T     B37      37. T3-01     1.1 300. .00047.04093              37.  1.

.............................. GROUP  [B02] ............................
B     B02     525.
B     B13     230.FH450  50
B     B38      37.                105

B     T3-02     1.                                                      
T     B02     525. T3-02     1.1 1000 .00008.02143             525.  1.
T     B13     230. T3-02     1.1 1000 .00005-.0021             230.  1. 
T     B38      37. T3-02     1.1 300. .00047.04093              37.  1. 

L+    B02     525  B01     525.1 437.3            
L+    B02     525  B01     525.2           437.3  

L     B07     525. B02     525.1      .00013.00252       .1643
L     B07     525. B02     525.2      .00013.00251       .1639
L     B07     525. B02     525.3      .00013.00249       .1626

.............................. GROUP  [B03] ............................                          
B     B03     525. 
                           
B     B14     230.                                                               
B     B15     230.                    
B     B16     230. 
B     B17     230. 

B     B39     37.                 80 
B     B40     37.                 80   
B     B41     37.                 80 
.B     B42     37. 
B     B43     37.                 75 
B     B44     37.                 75              
B     B45     37.                 235   
 
B     WT03-1  .69 FD                  400.250                              
T     WT03-1  .69  B39      37.1 300.       .02167              .6937.            T2-05   
T     B15     230. B39      37.1 300.         .035             230.37.            T2-06
L     B15     230. B14     230.1 1596 .00186.01307      .0241224.6                
                                                                          
B     WT03-2  .69 FD                  400.250                              
T     WT03-2  .69  B40      37.1 300.       .02167              .6937.            T2-07
T     B15     230. B40      37.1 300.         .035             230.37.            T2-08
L     B15     230. B14     230.2 1596 .00186.01307      .0241224.6 

                                                                        
B     WT03-3  .69 FD                  400.250                              
T     WT03-3  .69  B41      37.1 300.       .02167              .6937.            T2-09
T     B16     230. B41      37.1 300.         .035             230.37.            T2-10
L     B16     230. B14     230.1 1596 .00186.01307      .0241224.6  

.B     WT03-4  .69 GF                  400.300.                                          
.T     WT03-4  .69  B42      37.1 300.       .02167              .6937.            T2-11  
.T     B16     230. B42      37.1 300.         .035             230.37.            T2-12  
.L     B16     230. B14     230.2 1596 .00186.01307      .0241224.6                      

                                                                        
B     PV03-1  .4  GF                  400.240.                             
T     PV03-1  .4   B43      37.1 360.       .01806              .4 37.            T2-13
T     B17     230. B43      37.1 300.         .035             230.37.            T2-14
L     B17     230. B14     230.1 1596 .00186.01307      .0241224.6 
                                                                         
B     PV03-2  .4  GF                  400.240.                             
T     PV03-2  .4   B44      37.1 360.       .01806              .4 37.            T2-15
T     B17     230. B44      37.1 300.         .035             230.37.            T2-16
L     B17     230. B14     230.2 1596 .00186.01307      .0241224.6 
                                                                                         
B     T3-03     1.                                                      
T     T3-03     1. B03     525.1 1000 .00005 .0157               1. 525.
T     T3-03     1. B14     230.1 1000 .00005-00158               1. 230.
T     T3-03     1. B45     37. 1 360. .00021.02668               1. 37. 
                                                                        
B     T3-04     1.                                                      
T     T3-04     1. B03     525.1 1000 .00005 .0157               1. 525.
T     T3-04     1. B14     230.1 1000 .00005-00158               1. 230.
T     T3-04     1. B45     37. 1 360. .00021.02668               1. 37. 
                                                                                                                                                
L     B03     525. B01     525.1            .0004                                                                                                                                                                                                                                                      
                                                                                                     	                                                                                                                                                                                               
BQ    TP03-1   20.CG                  600.600. 300. -150.1.03              
T     TP03-1   20. B03     525.  780. .00026.02264              20. 525.           T2-17
                                                                 
BQ    TP03-2   20.CG                  600.600. 300. -150.1.03            
T     TP03-2   20. B03     525.  780. .00026.02264              20. 525.           T2-18
 
.............................. GROUP  [B04] ............................
B     B04     525.                                                                                                                                               
B     B18     230.                                                    
B     B19     230.                                                    
B     B20     230. 

B     B46     37.                 45                                  
B     B47     37.                 45                
B     B48     37.                 45                
B     B49     37.                 45                
B     B50     37.                 220.                                  

B     WT04-1  .69 FD                  400.200.                       
T     WT04-1  .69  B46      37.1 300.       .02167              .6937.              T2-19
T     B19     230. B46      37.1 300.         .035             230.  37.            T2-20
L     B19     230. B18     230.1 1596 .00186.01307      .0241224.6 
                                                                       
B     WT04-2  .69 FD                  400.200.                           
T     WT04-2  .69  B47      37.1 300.       .02167              .6937.              T2-21
T     B19     230. B47      37.1 300.         .035             230.  37.            T2-22
L     B19     230. B18     230.2 1596 .00186.01307      .0241224.6 

                                                                      
B     WT04-3  .69 FD                  400.200.                           
T     WT04-3  .69  B48      37.1 300.       .02167              .6937.              T2-23
T     B20     230. B48      37.1 300.         .035             230.  37.            T2-24
L     B20     230. B18     230.1 1596 .00186.01307      .0241224.6 
                                                                       
B     WT04-4  .69 FD                  400.200.                           
T     WT04-4  .69  B49      37.1 300.       .02167              .6937.              T2-25
T     B20     230. B49      37.1 300.         .035             230.  37.            T2-26                                                           
L     B20     230. B18     230.2 1596 .00186.01307      .0241224.6  

                                                                                                                                           
B     T3-05     1.                                                    
T     T3-05     1. B04     525.1 1000 .00005 .0157               1. 525.
T     T3-05     1. B18     230.1 1000 .00005-00158               1. 230.
T     T3-05     1. B50     37. 1 360. .00021.02668               1.37.  
                                                                        
B     T3-06     1.                                                    
T     T3-06     1. B04     525.1 1000 .00005 .0157               1. 525.
T     T3-06     1. B18     230.1 1000 .00005-00158               1. 230.
T     T3-06     1. B50     37. 1 360. .00021.02668               1.37.  
                                                                       
BQ    TP04-1  20. CG                  600.500. 300. -150.1.03            
T     TP04-1   20. B04     525.  780. .00026.02264              20. 525.             T2-27

L     B04     525. B02     525.              .0001 

.............................. GROUP  [B05] ............................
B     B05     525.                                       1.0               
B     B21     230.                                                       
B     B22     230.                                                       
B     B23     230. 
.B     B24     230. 

B     B51     37.                 40 
B     B52     37.                 40
B     B53     37.                 40
B     B54     37.                 40
.B     B55     37.
.B     B56     37.                                    
B     B57     37.                 175                                      

B     WT05-1  .69 FD                  400.240                              
T     WT05-1  .69  B51      37.1 300.       .02167              .6937.               T2-28
T     B22     230. B51      37.1 300.         .035             230.  37.             T2-29
L     B22     230. B21     230.1 1596 .00186.01307      .0241224.6

B     WT05-2  .69 FD                  400.240                              
T     WT05-2  .69  B52      37.1 300.       .02167              .6937.               T2-30
T     B22     230. B52      37.1 300.         .035             230.  37.             T2-31
L     B22     230. B21     230.2 1596 .00186.01307      .0241224.6  


B     WT05-3  .69 FD                  400.240                              
T     WT05-3  .69  B53      37.1 300.       .02167              .6937.               T2-32
T     B23     230. B53      37.1 300.         .035             230.  37.             T2-33
L     B23     230. B21     230.1 1596 .00186.01307      .0241224.6    


B     WT05-4  .69 FD                  400.240   
T     WT05-4  .69  B54      37.1 300.       .02167              .6937.               T2-34
T     B23     230. B54      37.1 300.         .035             230.  37.             T2-35
L     B23     230. B21     230.2 1596 .00186.01307      .0241224.6 


.B     PV05-1  .4  GF                  400.300                             
.T     PV05-1  .4   B55      37.1 360.       .01806              .4 37.              T2-36
.T     B24     230. B55      37.1 300.         .035             230.  37.            T2-37
.L     B24     230. B21     230.1 1596 .00186.01307      .0241224.6       

.B     PV05-2  .4  GF                  400.300                             
.T     PV05-2  .4   B56      37.1 360.       .01806              .4 37.              T2-38
.T     B24     230. B56      37.1 300.         .035             230.  37.            T2-39
.L     B24     230. B21     230.2 1596 .00186.01307      .0241224.6       
                                                                                                                                                                                                                                                                               
B     T3-07     1.                                                         
T     T3-07     1. B05     525.1 1000 .00005 .0157               1. 525.  
T     T3-07     1. B21     230.1 1000 .00005-00158               1. 230.   
T     T3-07     1. B57      37.1 360. .00021.02668               1.37.     
                                                                           
B     T3-08     1.                                                         
T     T3-08     1. B05     525.1 1000 .00005 .0157               1. 525.  
T     T3-08     1. B21     230.1 1000 .00005-00158               1. 230.   
T     T3-08     1. B57      37.1 360. .00021.02668               1.37.     
                                                                           
BQ    TP05-1  20. CG                  600.500. 300. -150.1.02           
T     TP05-1   20. B05     525.  780. .00026.02264              20. 525.              T2-40

BQ    TP05-2  20. CG                  600.300. 300. -150.1.02           
T     TP05-2   20. B05     525.  780. .00026.02264              20. 525.              T2-41

BQ    TP05-3   20.CG                  600.400. 300. -150.1.02              
T     TP05-3   20. B05     525.  780. .00026.02264              20. 525.              T2-42

L     B05     525. B07     525.1 4360 .00089.02012       1.164 
L     B05     525. B07     525.2 4360 .00089.02012       1.164 

L+    B05     525. B07     525.1  164.                         
L+    B05     525. B07     525.2           164.                 
.............................. GROUP  [B06] ............................
B     B06     525.                                                                                                                                   
B     B25     230.                                                        
B     B26     230.                                                        
B     B27     230.

B     B58     37.                 73 
B     B59     37.                 73 
B     B60     37.                 73 
.B     B61     37.                                                        

B     B62     37.                 200.                                      

B     PV06-1  .4  GF                  400.300.                               
T     PV06-1  .4   B58      37.1 360.       .01806              .4 37.                T2-43
T     B26     230. B58      37.1 300.         .035             230.  37.              T2-44
L     B26     230. B25     230.1 1596 .00186.01307      .0241224.6 

B     PV06-2  .4  GF                  400.300.                               
T     PV06-2  .4   B59      37.1 360.       .01806              .4 37.                T2-45
T     B26     230. B59      37.1 300.         .035             230.  37.              T2-46
L     B26     230. B25     230.2 1596 .00186.01307      .0241224.6          

B     PV06-3  .4  GF                  400.300.                               
T     PV06-3  .4   B60      37.1 360.       .01806              .4 37.                T2-47                                                                  
T     B27     230. B60      37.1 300.         .035             230.  37.              T2-48
L     B27     230. B25     230.1 1596 .00186.01307      .0241224.6                        

.B     PV06-4  .4  GF                  400.300.                            
.T     PV06-4  .4   B61      37.1 360.       .01806              .4 37.               T2-49
.T     B27     230. B61      37.1 300.         .035             230.  37.             T2-50
.L     B27     230. B25     230.2 1596 .00186.01307      .0241224.6       
                                                                                                                                                                
B     T3-09     1.                                                          
T     T3-09     1. B06     525.1 1000 .00005 .0157               1. 525.    
T     T3-09     1. B25     230.1 1000 .00005-00158               1. 230.    
T     T3-09     1. B62     37. 1 360. .00021.02668               1.37.      
                                                                            
B     T3-10     1.                                                          
T     T3-10     1. B06     525.1 1000 .00005 .0157               1. 525.    
T     T3-10     1. B25     230.1 1000 .00005-00158               1. 230.    
T     T3-10     1. B62      37.1 360. .00021.02668               1.37.      
                                                                           
BS    TP06-1   20.CG 26.412.79        600. 300. 300.-200.  1.             
T     TP06-1   20. B06     525.  780. .00026.02264              20. 525.            T2-51

L     B06     525. B07     525.1      .00023 .0043        .262
L     B06     525. B07     525.2      .00024.00439       .2629

.............................. GROUP  [ B09 ] ............................   
B     B09     525.                                                           
B     B28     230.FH4347.150.                                                                                                          
B     B63     37.                 535.                                       
                                                                                                                   
B     T3-11     1.                                                           
T     B09     525. T3-11     1.1 1000 .00008.02143             525.  1.      
T     B28     230. T3-11     1.1 1000 .00005-.0021             230.  1.      
T     B63      37. T3-11     1.1 300. .00047.04093              37.  1.      

B     T3-12     1.                                                                             
T     B09     525. T3-12     1.1 1000 .00008.02143             525.  1.      
T     B28     230. T3-12     1.1 1000 .00005-.0021             230.  1.      
T     B63      37. T3-12     1.1 300. .00047.04093              37.  1.      

B     T3-13     1.                                                                              
T     B09     525. T3-13     1.1 1000 .00008.02143             525.  1.      
T     B28     230. T3-13     1.1 1000 .00005-.0021             230.  1.      
T     B63      37. T3-13     1.1 300. .00047.04093              37.  1.      

B     T3-14     1.                                                                             
T     B09     525. T3-14     1.1 1000 .00008.02143             525.  1.      
T     B28     230. T3-14     1.1 1000 .00005-.0021             230.  1.      
T     B63      37. T3-14     1.1 300. .00047.04093              37.  1.      

B     T3-15     1.                                                     
T     B09     525. T3-15     1.1 1000 .00008.02143             525.  1.
T     B28     230. T3-15     1.1 1000 .00005-.0021             230.  1.
T     B63      37. T3-15     1.1 300. .00047.04093              37.  1.
                                                                            
BQ    TP09-1  20. CG                  600.300. 300. -150.1.03                
T     TP09-1   20. B09     525.  780. .00026.02264              20. 525.             T2-52
                                                                             
BQ    TP09-2  20. CG                  600.300. 300. -150.1.03                
T     TP09-2   20. B09     525.  780. .00026.02264              20. 525.             T2-53
                                                                             
BQ    TP09-3  20. CG                  600.300. 300. -150.1.03                
T     TP09-3   20. B09     525.  780. .00026.02264              20. 525.             T2-54
                                                                                                                                                                         
L     B09     525. B10     525.1      .00014.00197      .30984               
L     B09     525. B10     525.2      .00014.00197      .30984               
                                                                             
L     B08     525. B09     525.1      .00014.00197      .10984               
L     B08     525. B09     525.2      .00014.00197      .10984               

.............................. GROUP  [ B10 ] ............................
B     B10     525.    
B     B29     230.FH3590.200         
B     B30     230.                   
B     B31     230. 
B     B32     230.

B     B64     37.                 55 
B     B65     37.                 55
B     B66     37.                 55 
.B     B67     37.                 
B     B68     37.                 505. 
B     B69     37.                 90              
                                                                       
B     T3-16     1.                                                     
T     B10     525. T3-16     1.1 1000 .00008.02143             525.  1.
T     B29     230. T3-16     1.1 1000 .00005-.0021             230.  1.
T     B68     37.  T3-16     1.1 300. .00047.04093              37.  1.

B     T3-17     1.                                                                      
T     B10     525. T3-17     1.1 1000 .00008.02143             525.  1.
T     B29     230. T3-17     1.1 1000 .00005-.0021             230.  1.
T     B68     37.  T3-17     1.1 300. .00047.04093              37.  1.

B     T3-18     1.
T     B10     525. T3-18     1.1 1000 .00008.02143             525.  1.
T     B29     230. T3-18     1.1 1000 .00005-.0021             230.  1.
T     B68     37.  T3-18     1.1 300. .00047.04093              37.  1.

B     T3-19     1.                                                     
T     B10     525. T3-19     1.1 1000 .00008.02143             525.  1.
T     B29     230. T3-19     1.1 1000 .00005-.0021             230.  1.
T     B68     37.  T3-19     1.1 300. .00047.04093              37.  1.

BQ    TP10-1  20. CG                  600.450. 300. -150.1.04            
T     TP10-1   20. B10     525.  780. .00026.02264              20. 525.               T2-55
                                                                         
BQ    TP10-2  20. CG                  600.450. 300. -150.1.04            
T     TP10-2   20. B10     525.  780. .00026.02264              20. 525.               T2-56

B     PV10-1  .4  GF                  400.200.                            
T     PV10-1  .4   B64      37.1 360.       .01806              .4 37.                 T2-57
T     B31     230. B64      37.1 300.         .035             230.  37.               T2-58
L     B31     230. B30     230.1 1596 .00186.01307      .0241224.6             
                                                                       
B     PV10-2  .4  GF                  400.200.                            
T     PV10-2  .4   B65      37.1 360.       .01806              .4 37.                 T2-59
T     B31     230. B65      37.1 300.         .035             230.  37.               T2-60
L     B31     230. B30     230.2 1596 .00186.01307      .0241224.6      

B     PV10-3  .4  GF                  400.200.                                                         
T     PV10-3  .4   B66      37.1 360.       .01806              .4 37.                 T2-61           
T     B32     230. B66      37.1 300.         .035             230.  37.               T2-62           
L     B32     230. B30     230.1 1596 .00186.01307      .0241224.6                                     

.B     PV10-4  .4  GF                  400.200.                                               
.T     PV10-4  .4   B67      37.1 360.       .01806              .4 37.                 T2-63 
.T     B33     230. B67      37.1 300.         .035             230.  37.               T2-64 
.L     B33     230. B30     230.1 1596 .00186.01307      .0241224.6                           

B     T3-20     1.                                                        
T     T3-20     1. B10     525.1 1000 .00005 .0157               1. 525.  
T     T3-20     1. B30     230.1 1000 .00005-00158               1. 230.  
T     T3-20     1. B69      37.1 360. .00021.02668               1.37.    

.B     T3-21     1.                                                       
.T     T3-21     1. B10     525.1 1000 .00005 .0157               1. 525. 
.T     T3-21     1. B30     230.1 1000 .00005-00158               1. 230. 
.T     T3-21     1. B69      37.1 360. .00021.02668               1.37.   
                                                                         
.............................. GROUP  [ B11 ] ............................                                                                                                                                      
B     B11     525.                                                                
B     B33     230.FH1700.100                                                      
B     B34     230.                                                                
B     B35     230.
B     B36     230.

B     B70     37.                 108
B     B71     37.                 108
B     B72     37.                 105  
B     B73     37.                 105                                       
B     B74     37.                 315                                            
B     B75     37.                 50
                                                                                 
B     T3-22     1.                                                                
T     B11     525. T3-22     1.1 1000 .00008.02143             525.  1.           
T     B33     230. T3-22     1.1 1000 .00005-.0021             230.  1.           
T     B74      37. T3-22     1.1 300. .00047.04093              37.  1.           

B     T3-23     1.                                                                                    
T     B11     525. T3-23     1.1 1000 .00008.02143             525.  1.           
T     B33     230. T3-23     1.1 1000 .00005-.0021             230.  1.           
T     B74      37. T3-23     1.1 300. .00047.04093              37.  1.           
                                                                                  
BQ    TP11-1  20. CG                  600.300. 300. -150.1.04                     
T     TP11-1   20. B11     525.  780. .00026.02264              20. 525.                T2-65 
                                                                                  
B     PV11-1  .4  GF                  400.250.                                    
T     PV11-1  .4   B70      37.1 360.       .01806              .4 37.                  T2-66
T     B35     230. B70      37.1 300.         .035             230.  37.                T2-67
L     B35     230. B34     230.1 1596 .00186.01307      .0241224.6                
                                                                                                                                                                    
B     PV11-2  .4  GF                  400.250.                                   
T     PV11-2  .4   B71     37. 1 360.       .01806              .4 37.                  T2-68
T     B35     230. B71      37.1 300.         .035             230.  37.                T2-69
L     B35     230. B34     230.2 1596 .00186.01307      .0241224.6                    
                                                                                                                                                                                                         
B     PV11-3  .4  GF                  400.200.                                        
T     PV11-3  .4   B72     37. 1 360.       .01806              .4 37.                  T2-70    
T     B36     230. B72      37.1 300.         .035             230.  37.                T2-71
L     B36     230. B34     230.3 1596 .00186.01307      .0241224.6                     
                                                                                                                                                                                                                              
B     PV11-4  .4  GF                  400.200.                                         
T     PV11-4  .4   B73     37. 1 360.       .01806              .4 37.                  T2-72       
T     B36     230. B73      37.1 300.         .035             230.  37.                T2-73
L     B36     230. B34     230.4 1596 .00186.01307      .0241224.6                     

B     T3-24     1.                                                                
T     T3-24     1. B11     525.1 1000 .00005 .0157               1. 525.          
T     T3-24     1. B34     230.1 1000 .00005-00158               1. 230.          
T     T3-24     1. B75      37.1 360. .00021.02668               1.37.            

B     T3-25     1.                                                             
T     T3-25     1. B11     525.1 1000 .00005 .0157               1. 525.       
T     T3-25     1. B34     230.1 1000 .00005-00158               1. 230.       
T     T3-25     1. B75      37.1 360. .00021.02668               1.37.         
                                                                                                                                              
L     B11     525. B10     525.1 3600 .00025.00921      0.5379                        
L     B11     525. B10     525.2 3600 .00025.00921      0.5379                         
                                                                                       
L+    B11     525  B10     525 1 382.7                                                
L+    B11     525  B10     525 2           382.7                                                                                                                                                                        

L     B11     525. B01     525.1 3600 .00045.0166       0.9682   
L     B11     525. B01     525.2 3600 .00045.0166       0.9682  
 
L     B02     525. B01     525.1 3600 .0002 .00670      0.3926
L     B02     525. B01     525.2 3600 .0002 .00670      0.3926                                                
                                                                                      
L+    B11     525  B01     525 1 382.7                                                 
L+    B11     525  B01     525 2           382.7                                      
    
                                                                                                                                                                                                                                                                                                                                                                                                                                                                                                                                                                                                                                                                                                                                                                                                                                                                                                                                                                                                                                                                                                                                                                                                                                                                                                                                                                                                     
/CHANGES\                        
/SOLUTION\                       
>AI_CONTROL= MON<                 
>LTC= ON<                         
>SOL_ITER,DECOUPLED=30,CURRENT=0,NEWTON=30,OPTIM=0<
.>TOLERANCE,BusV=0.005,AIPOWER=0.001,TX=0.001,Q=0.005,OPCUT=0.001<
(END)                           